Version 4
SHEET 1 880 680
WIRE 48 -144 -256 -144
WIRE 192 -144 48 -144
WIRE 416 -144 192 -144
WIRE -256 -48 -256 -144
WIRE -256 80 -256 32
WIRE 48 144 48 -144
WIRE 192 144 192 -144
WIRE 416 144 416 -144
WIRE -112 240 -256 240
WIRE 48 240 48 224
WIRE 48 240 -48 240
WIRE 192 240 192 224
WIRE 192 240 48 240
WIRE 288 240 192 240
WIRE 416 240 416 224
WIRE 416 240 352 240
WIRE 576 240 416 240
WIRE 576 272 576 240
WIRE -256 288 -256 240
WIRE -256 400 -256 368
WIRE 576 400 576 352
FLAG -256 80 0
FLAG 576 400 0
FLAG -256 400 0
FLAG -256 240 VIN
FLAG 576 240 VOUT
SYMBOL res 32 128 R0
SYMATTR InstName R1
SYMATTR Value 100k
SYMBOL res 176 128 R0
SYMATTR InstName R2
SYMATTR Value 1Meg
SYMBOL res 400 128 R0
SYMATTR InstName R3
SYMATTR Value 100k
SYMBOL res 560 256 R0
SYMATTR InstName R4
SYMATTR Value 1Meg
SYMBOL cap 352 224 R90
WINDOW 0 0 32 VBottom 2
WINDOW 3 32 32 VTop 2
SYMATTR InstName C1
SYMATTR Value 0.1µ
SYMBOL cap -48 224 R90
WINDOW 0 0 32 VBottom 2
WINDOW 3 32 32 VTop 2
SYMATTR InstName C2
SYMATTR Value 1µ
SYMATTR SpiceLine V=200 Irms=0 Rser=0 Lser=0
SYMBOL voltage -256 -64 R0
WINDOW 123 0 0 Left 0
WINDOW 39 0 0 Left 0
SYMATTR InstName V1
SYMATTR Value 4.5
SYMBOL Misc\\signal -256 272 R0
WINDOW 123 24 132 Left 2
WINDOW 39 0 0 Left 0
SYMATTR InstName V2
SYMATTR Value SINE(0 0.25 1K)
SYMATTR Value2 AC 0.25 0
TEXT -294 424 Left 2 !.ac oct 20 0.1 5000
