Version 4
SHEET 1 880 680
WIRE 80 -144 -192 -144
WIRE 128 -144 80 -144
WIRE 240 -144 192 -144
WIRE 256 -144 240 -144
WIRE -320 -32 -432 -32
WIRE -192 -32 -192 -80
WIRE -192 -32 -240 -32
WIRE 80 -32 80 -144
WIRE 128 -32 80 -32
WIRE 256 -32 256 -144
WIRE 256 -32 208 -32
WIRE -192 0 -192 -32
WIRE 160 48 112 48
WIRE 224 48 160 48
WIRE -368 112 -400 112
WIRE -320 112 -368 112
WIRE -192 112 -192 64
WIRE -192 112 -240 112
WIRE 224 112 224 48
WIRE 224 112 160 112
WIRE -32 144 -80 144
WIRE 0 144 -32 144
WIRE -192 160 -192 112
WIRE 80 176 80 -32
WIRE 96 176 80 176
WIRE 160 192 160 112
WIRE 96 208 96 176
WIRE 128 208 96 208
WIRE 256 208 256 -32
WIRE 256 208 208 208
WIRE -544 224 -608 224
WIRE -432 224 -432 -32
WIRE -432 224 -464 224
WIRE -240 224 -432 224
WIRE -80 224 -80 144
WIRE -80 224 -144 224
WIRE 208 224 208 208
WIRE 208 224 192 224
WIRE 48 240 16 240
WIRE 128 240 48 240
WIRE 160 288 160 256
WIRE 16 304 16 240
WIRE -608 320 -608 224
WIRE -560 416 -608 416
WIRE -512 416 -560 416
WIRE -304 416 -352 416
WIRE -272 416 -304 416
WIRE 16 448 16 384
WIRE -512 480 -512 416
WIRE -352 480 -352 416
WIRE -512 592 -512 560
WIRE -352 592 -352 560
WIRE -352 592 -512 592
WIRE -512 640 -512 592
FLAG -608 320 0
FLAG 160 288 0
FLAG -368 112 4V5
FLAG 160 48 9V0
FLAG -32 144 9V0
FLAG 16 448 0
FLAG -512 640 0
FLAG -560 416 9V0
FLAG -304 416 4V5
FLAG 48 240 VIN
FLAG 240 -144 VOUT
SYMBOL res 224 -48 R90
WINDOW 0 0 56 VBottom 2
WINDOW 3 32 56 VTop 2
SYMATTR InstName R1
SYMATTR Value 220k
SYMBOL cap 192 -160 R90
WINDOW 0 0 32 VBottom 2
WINDOW 3 32 32 VTop 2
SYMATTR InstName C1
SYMATTR Value 100p
SYMBOL cap -208 -144 R0
SYMATTR InstName C2
SYMATTR Value 0.1µ
SYMBOL cap -208 0 R0
SYMATTR InstName C3
SYMATTR Value 0.01µ
SYMBOL res -224 -48 R90
WINDOW 0 0 56 VBottom 2
WINDOW 3 32 56 VTop 2
SYMATTR InstName R2
SYMATTR Value 2.2k
SYMBOL res -224 96 R90
WINDOW 0 0 56 VBottom 2
WINDOW 3 32 56 VTop 2
SYMATTR InstName R3
SYMATTR Value 47k
SYMBOL npn -144 160 R90
SYMATTR InstName Q1
SYMATTR Value 2N2222
SYMBOL res -448 208 R90
WINDOW 0 0 56 VBottom 2
WINDOW 3 32 56 VTop 2
SYMATTR InstName R4
SYMATTR Value 10k
SYMBOL Misc\\signal 16 288 R0
WINDOW 123 24 132 Left 2
WINDOW 39 0 0 Left 0
SYMATTR InstName V1
SYMATTR Value SINE(4.5 0.25 1K)
SYMATTR Value2 AC 0.25 0
SYMBOL voltage -512 464 R0
WINDOW 123 0 0 Left 0
WINDOW 39 0 0 Left 0
SYMATTR InstName V2
SYMATTR Value 9.0
SYMBOL voltage -352 464 R0
WINDOW 123 0 0 Left 0
WINDOW 39 0 0 Left 0
SYMATTR InstName V3
SYMATTR Value 4.5
SYMBOL Opamps\\RH37C 160 160 R0
SYMATTR InstName U1
TEXT -628 664 Left 2 !.ac oct 10 1 5000
