Version 4
SHEET 1 880 680
WIRE -272 -224 -304 -224
WIRE -240 -224 -272 -224
WIRE -144 -224 -176 -224
WIRE -112 -224 -144 -224
WIRE 400 -176 368 -176
WIRE 448 -176 400 -176
WIRE -304 -160 -304 -224
WIRE -176 -160 -176 -224
WIRE 256 -112 240 -112
WIRE 336 -112 256 -112
WIRE 448 -112 448 -176
WIRE -304 -64 -304 -80
WIRE -176 -64 -176 -80
WIRE -176 -64 -304 -64
WIRE -304 -32 -304 -64
WIRE 336 -32 336 -112
WIRE 448 16 448 -32
WIRE 48 80 -32 80
WIRE 176 80 128 80
WIRE 336 80 336 48
WIRE 336 80 240 80
WIRE 384 80 336 80
WIRE 400 80 384 80
WIRE 640 112 448 112
WIRE 672 112 640 112
WIRE 448 128 448 112
WIRE -32 160 -32 80
WIRE 448 240 448 208
WIRE -32 288 -32 240
FLAG -304 -32 0
FLAG -32 288 0
FLAG -272 -224 9V0
FLAG -144 -224 4V5
FLAG 256 -112 4V5
FLAG 448 240 0
FLAG 400 -176 9V0
FLAG 640 112 VOUT
FLAG 384 80 VG
FLAG -32 80 VIN
SYMBOL Misc\\signal -32 144 R0
WINDOW 123 24 132 Left 2
WINDOW 39 0 0 Left 0
SYMATTR InstName V1
SYMATTR Value SINE(0 0.25 1K)
SYMATTR Value2 AC 0.25 0
SYMBOL voltage -304 -176 R0
WINDOW 123 0 0 Left 0
WINDOW 39 0 0 Left 0
SYMATTR InstName V2
SYMATTR Value 9
SYMBOL voltage -176 -176 R0
WINDOW 123 0 0 Left 0
WINDOW 39 0 0 Left 0
SYMATTR InstName V3
SYMATTR Value 4.5
SYMBOL res 144 64 R90
WINDOW 0 0 56 VBottom 2
WINDOW 3 32 56 VTop 2
SYMATTR InstName R1
SYMATTR Value 10k
SYMBOL res 352 64 R180
WINDOW 0 36 76 Left 2
WINDOW 3 36 40 Left 2
SYMATTR InstName R2
SYMATTR Value 1Meg
SYMBOL cap 240 64 R90
WINDOW 0 0 32 VBottom 2
WINDOW 3 32 32 VTop 2
SYMATTR InstName C1
SYMATTR Value 47n
SYMBOL njf 400 16 R0
SYMATTR InstName J1
SYMATTR Value J201
SYMBOL res 432 112 R0
SYMATTR InstName R3
SYMATTR Value 10k
SYMBOL res 432 -128 R0
SYMATTR InstName R4
SYMATTR Value 0.01
TEXT -338 312 Left 2 !.tran 0 0.005 0 0.0001
